*Heading
** Job name: Job-1 Model name: 1_EUC_alfa11
** Generated by: Abaqus/CAE 6.14-5
*Preprint, echo=NO, model=NO, history=NO, contact=NO
**
** PARTS
**
**Part, name=Plate
*Node
      1,          -6.,          -4.,           0.
      2,  -4.22222185,          -4.,           0.
      3,  -4.66666651,          -4.,           0.
      4,  -5.11111116,          -4.,           0.
      5,  -5.55555534,          -4.,           0.
      6,          -6.,  -3.55555558,           0.
      7,          -6.,  -3.11111093,           0.
      8,          -6.,  -2.66666675,           0.
      9,          -6.,  -2.22222233,           0.
     10,  -4.22222185,  -2.22222233,           0.
     11,  -4.22222185,  -2.66666675,           0.
     12,  -4.22222185,  -3.11111116,           0.
     13,  -4.22222185,  -3.55555558,           0.
     14,  -4.66666651,  -2.22222233,           0.
     15,  -4.66666651,  -2.66666675,           0.
     16,  -4.66666651,  -3.11111116,           0.
     17,  -4.66666651,  -3.55555558,           0.
     18,  -5.11111116,  -2.22222233,           0.
     19,  -5.11111116,  -2.66666675,           0.
     20,  -5.11111116,  -3.11111116,           0.
** ... 1548 like lines cut
*Element, type=C3D8R
  1,  470,  471,  736,  735,  490,  491,  761,  760
  2,  471,  472,  737,  736,  491,  492,  762,  761
  3,  472,  473,  738,  737,  492,  493,  763,  762
  4,  473,  474,  739,  738,  493,  494,  764,  763
  5,  474,  427,  686,  739,  494,  447,  711,  764
  6,  427,  428,  687,  686,  447,  448,  712,  711
  7,  428,  429,  688,  687,  448,  449,  713,  712
  8,  429,  430,  689,  688,  449,  450,  714,  713
  9,  430,  431,  685,  689,  450,  451,  710,  714
 10,  431,  395,  645,  685,  451,  411,  665,  710
 11,  395,  396,  646,  645,  411,  412,  666,  665
 12,  396,  397,  647,  646,  412,  413,  667,  666
 13,  397,  398,  648,  647,  413,  414,  668,  667
 14,  398,  355,  596,  648,  414,  375,  621,  668
 15,  355,  356,  597,  596,  375,  376,  622,  621
 16,  356,  357,  598,  597,  376,  377,  623,  622
 17,  357,  358,  599,  598,  377,  378,  624,  623
 18,  358,  359,  595,  599,  378,  379,  620,  624
 19,  359,  323,  555,  595,  379,  339,  575,  620
 20,  323,  324,  556,  555,  339,  340,  576,  575
** ... 709 like lines cut
**********************************************************************
*Elset, elset=Set-4, generate
 1,  648,    1
*Elset, elset=Set-5, generate
 649,  729,    1
*********************** Output for EUC Only**********************
*Elset, elset=Internal_EUC, generate
 649,  729,    1
*******************************************************************
*Orientation, name=Ori-1
1., 0., 0., 0., 1., 0.
3, 0.
** Section: Section-1
*Solid Section, elset=Set-4, orientation=Ori-1, material=MATERIAL-1
0.5,
** Section: Section-2
*Solid Section, elset=Set-5, orientation=Ori-1,  material=MATERIAL-2
0.5,
**End Part
**  
**
** ASSEMBLY
**
**Assembly, name=Assembly
**  
**Instance, name=EUC-1, part=EUC
**End Instance
*******Set to Results only in EUC without surrounding**************************************
**^*Elset, elset=EUC_Int, generate
**^  1,  1616,   1
***************************Boundary Constraint 4 Corner************************************
*Nset, nset=Set-8
    1,   26,  231,  256, 1289, 1314, 1519, 1544
*Nset, nset=Set_DOF3, generate
   1,  1568,     1
*************************************Temperature _Front************************************
*Nset, nset=Set-21
   620,  621,  622,  623,  624,  625,  626,  627,  628,  629,  630,  631,  632,  633,  634,  635
  636,  637,  638,  639,  640,  641,  642,  643,  644,  665,  666,  667,  668,  669,  670,  671
  672,  673,  674,  675,  676,  677,  678,  679,  680,  681,  682,  683,  684,  710,  715,  716
  717,  718,  877,  878,  879,  880,  881,  882,  883,  884,  885,  886,  887,  888,  889,  890
  891,  892,  893,  894,  895,  896,  913,  914,  915,  916,  917,  918,  919,  920,  921,  922
  923,  924,  925,  926,  927,  928,  949,  950,  951,  952, 1124, 1125, 1126, 1127, 1128, 1169
 1170, 1171, 1172, 1214
 *************************************Temperature_Back************************************
*Nset, nset=Set-23
  595,  596,  597,  598,  599,  600,  601,  602,  603,  604,  605,  606,  607,  608,  609,  610
  611,  612,  613,  614,  615,  616,  617,  618,  619,  645,  646,  647,  648,  649,  650,  651
  652,  653,  654,  655,  656,  657,  658,  659,  660,  661,  662,  663,  664,  685,  690,  691
  692,  693,  857,  858,  859,  860,  861,  862,  863,  864,  865,  866,  867,  868,  869,  870
  871,  872,  873,  874,  875,  876,  897,  898,  899,  900,  901,  902,  903,  904,  905,  906
  907,  908,  909,  910,  911,  912,  929,  930,  931,  932, 1099, 1100, 1101, 1102, 1103, 1149
 1150, 1151, 1152, 1189
******************************************************************************************
*Elset, elset=_m_Surf-5_New_S3, generate
 622,  648,    1
*Surface, type=ELEMENT, name=m_Surf-5_New
_m_Surf-5_New_S3, S3
*Elset, elset=_m_Surf-7_New_S4
 252, 261, 270, 279, 288, 297, 306, 315, 324, 432, 459, 486, 513, 540, 567, 594
 621,
*Elset, elset=_m_Surf-7_New_S6, generate
   1,  190,   27
*Surface, type=ELEMENT, name=m_Surf-7_New
_m_Surf-7_New_S4, S4
_m_Surf-7_New_S6, S6
*Elset, elset=_m_Surf-9_New_S3,  generate
 623,  647,    1
*Surface, type=ELEMENT, name=m_Surf-9_New
_m_Surf-9_New_S3, S3
*Elset, elset=_s_Surf-5_New_S3,  generate
 217,  243,    1
*Surface, type=ELEMENT, name=s_Surf-5_New
_s_Surf-5_New_S3, S3
*Elset, elset=_s_Surf-7_New_S4
  27,  54,  81, 108, 135, 162, 189, 216, 333, 342, 351, 360, 369, 378, 387, 396
 405,
*Elset, elset=_s_Surf-7_New_S6, generate
 406,  595,   27
*Surface, type=ELEMENT, name=s_Surf-7_New
_s_Surf-7_New_S4, S4
_s_Surf-7_New_S6, S6
*Elset, elset=_s_Surf-9_New_S3,  generate
 218,  242,    1
*Surface, type=ELEMENT, name=s_Surf-9_New
_s_Surf-9_New_S3, S3
** Constraint: LEFT-1-1
*Tie, name=LEFT-1-1, adjust=no, position tolerance=12.
s_Surf-9_New, m_Surf-9_New
** Constraint: TOP-1-1
*Tie, name=TOP-1-1, adjust=no, position tolerance=12.
s_Surf-7_New, m_Surf-7_New
**************************************************************************************************  
*MPC, user, mode=node
11, 1172,1171,1170,1169,1128,1127,1126,1125
12, 665,666,667,668,621,622,623,624
13, 1152,1151,1150,1149,1103,1102,1101,1100
14, 645,646,647,648,596,597,598,599
21, 718,717,716,715,952,951,950,949
22, 625,626,627,628,877,878,879,880
23, 693,692,691,690,932,931,930,929
24, 600,601,602,603,857,858,859,860
31, 1214,1189,1124,1099,620,595,710,685
**End Assembly
** 
** MATERIALS
**
*Material, name=MATERIAL-1
*Elastic
210., 0.3
*Expansion, type=ANISO
0.,0.,0.,1.,0.,0.
** End Assembly
** 
**  MATERIALS
** 
*Material, name=MATERIAL-2
*Elastic
210., 0.3
*Expansion, type=ANISO
0.,0.,0.,1.,0.,0.
** ----------------------------------------------------------------
** 
** STEP: Step-1
** 
*Step, name=Step-1, perturbation
*Static
** 
** BOUNDARY CONDITIONS
** 
** Name: BC-1 Type: Displacement/Rotation
*Boundary
Set-8, 1, 1
Set-8, 2, 2
** 
** Name: BC_DOG3 Type: Displacement/Rotation
*Boundary
Set_DOF3, 3, 3
** PREDEFINED FIELDS
** 
** Name: Field-1   Type: Temperature
*Temperature
Set-21, -1.
** Name: Field-2   Type: Temperature
*Temperature
Set-23, -1.
** 
** OUTPUT REQUESTS
** 
*Print, solve=NO
** 
** FIELD OUTPUT: F-Output-1
** 
*Output, field
*Element Output, elset=Internal_EUC, directions=YES
IVOL, S
** 
** HISTORY OUTPUT: H-Output-1
** 
*Output, history, variable=PRESELECT
*End Step
