*Heading
** Job name: Hahana_Mic_1_8_W_12El_MyEUC Model name: 3_EUC_Micro
** Generated by: Abaqus/CAE 6.14-5
*Preprint, echo=NO, model=NO, history=NO, contact=NO
**
** PARTS
**
*Part, name=Crack1_8_Angle_10
*End Part
**  
*Part, name=Plate
*Node
      1,          -2.,          -2.,           0.
      2,          -2.,           2.,           0.
      3,           2.,           2.,           0.
      4,           2.,          -2.,           0.
      5,          -2.,           2.,           6.
      6,           2.,           2.,           6.
      7,           2.,          -2.,           6.
      8,          -2.,          -2.,           6.
      9,           6.,          -6.,           6.
     10,           6.,           6.,           6.
     11,          -6.,           6.,           6.
     12,          -6.,          -6.,           6.
     13,          -4.,          -4.,           6.
     14,          -4.,           4.,           6.
     15,           4.,           4.,           6.
     16,           4.,          -4.,           6.
     17,          -4.,           4.,           0.
     18,          -4.,          -4.,           0.
     19,           4.,          -4.,           0.
     20,           4.,           4.,           0.
** ... 26435 like lines cut
*Element, type=C3D8R
   1,   198,  1801,  6975,  1383,     1,    25,   661,   100
   2,  1801,  1802,  6976,  6975,    25,    26,   662,   661
   3,  1802,  1803,  6977,  6976,    26,    27,   663,   662
   4,  1803,  1804,  6978,  6977,    27,    28,   664,   663
   5,  1804,  1805,  6979,  6978,    28,    29,   665,   664
   6,  1805,  1806,  6980,  6979,    29,    30,   666,   665
   7,  1806,  1807,  6981,  6980,    30,    31,   667,   666
   8,  1807,  1808,  6982,  6981,    31,    32,   668,   667
   9,  1808,  1809,  6983,  6982,    32,    33,   669,   668
  10,  1809,  1810,  6984,  6983,    33,    34,   670,   669
  11,  1810,  1811,  6985,  6984,    34,    35,   671,   670
  12,  1811,  1812,  6986,  6985,    35,    36,   672,   671
  13,  1812,  1813,  6987,  6986,    36,    37,   673,   672
  14,  1813,  1814,  6988,  6987,    37,    38,   674,   673
  15,  1814,  1815,  6989,  6988,    38,    39,   675,   674
  16,  1815,  1816,  6990,  6989,    39,    40,   676,   675
  17,  1816,  1817,  6991,  6990,    40,    41,   677,   676
  18,  1817,  1818,  6992,  6991,    41,    42,   678,   677
  19,  1818,  1819,  6993,  6992,    42,    43,   679,   678
  20,  1819,   210,  1592,  6993,    43,     2,    44,   679
** ... 24244 like lines cut
*Nset, nset=Set-1
     1,     2,     3,     4,     5,     6,     7,     8,     9,    10,    11,    12,    13,    14,    15,    16
    17,    18,    19,    20,    21,    22,    23,    24,    25,    26,    27,    28,    29,    30,    31,    32
    33,    34,    35,    36,    37,    38,    39,    40,    41,    42,    43,    44,    45,    46,    47,    48
    49,    50,    51,    52,    53,    54,    55,    56,    57,    58,    59,    60,    61,    62,    63,    64
    65,    66,    67,    68,    69,    70,    71,    72,    73,    74,    75,    76,    77,    78,    79,    80
    81,    82,    83,    84,    85,    86,    87,    88,    89,    90,    91,    92,    93,    94,    95,    96
    97,    98,    99,   100,   101,   102,   103,   104,   105,   106,   107,   108,   109,   110,   111,   112
   113,   114,   115,   116,   117,   118,   119,   120,   121,   122,   123,   124,   125,   126,   127,   128
   129,   130,   131,   132,   133,   134,   135,   136,   137,   138,   139,   140,   141,   142,   143,   144
   145,   146,   147,   148,   149,   150,   151,   152,   153,   154,   155,   156,   157,   158,   159,   160
   161,   162,   163,   164,   165,   166,   167,   168,   169,   170,   171,   172,   173,   174,   175,   176
   177,   178,   179,   180,   181,   182,   183,   184,   185,   186,   187,   188,   189,   190,   191,   192
   193,   194,   195,   196,   197,   198,   199,   200,   201,   202,   203,   204,   205,   206,   207,   208
   209,   210,   211,   212,   213,   214,   215,   216,   217,   218,   219,   220,   221,   222,   223,   224
   225,   226,   227,   228,   229,   230,   231,   232,   233,   234,   235,   236,   237,   238,   239,   240
   241,   242,   243,   244,   245,   246,   247,   248,   249,   250,   251,   252,   253,   254,   255,   256
   257,   258,   259,   260,   261,   262,   263,   264,   265,   266,   267,   268,   269,   270,   271,   272
   273,   274,   275,   276,   277,   278,   279,   280,   281,   282,   283,   284,   285,   286,   287,   288
   289,   290,   291,   292,   293,   294,   295,   296,   297,   298,   299,   300,   301,   302,   303,   304
   305,   306,   307,   308,   309,   310,   311,   312,   313,   314,   315,   316,   317,   318,   319,   320
** ... 1341 like lines cut
*Elset, elset=Set-1, generate
  4801,  24264,      1
*Nset, nset=Set-2
     1,     2,     3,     4,     5,     6,     7,     8,     9,    10,    11,    12,    13,    14,    15,    16
    17,    18,    19,    20,    21,    22,    23,    24,    25,    26,    27,    28,    29,    30,    31,    32
    33,    34,    35,    36,    37,    38,    39,    40,    41,    42,    43,    44,    45,    46,    47,    48
    49,    50,    51,    52,    53,    54,    55,    56,    57,    58,    59,    60,    61,    62,    63,    64
    65,    66,    67,    68,    69,    70,    71,    72,    73,    74,    75,    76,    77,    78,    79,    80
    81,    82,    83,    84,    85,    86,    87,    88,    89,    90,    91,    92,    93,    94,    95,    96
    97,    98,    99,   100,   101,   102,   103,   104,   105,   106,   107,   108,   109,   110,   111,   112
   113,   114,   115,   116,   117,   118,   119,   120,   121,   122,   123,   124,   125,   126,   127,   128
   129,   130,   131,   132,   133,   134,   135,   136,   137,   138,   139,   140,   141,   142,   143,   144
   145,   146,   147,   148,   149,   150,   151,   152,   153,   154,   155,   156,   157,   158,   159,   160
   161,   162,   163,   164,   165,   166,   167,   168,   169,   170,   171,   172,   173,   174,   175,   176
   177,   178,   179,   180,   181,   182,   183,   184,   185,   186,   187,   188,   189,   190,   191,   192
   193,   194,   195,   196,   197,   198,   199,   200,   201,   202,   203,   204,   205,   206,   207,   208
   209,   210,   211,   212,   213,   214,   215,   216,   217,   218,   219,   220,   221,   222,   223,   224
   225,   226,   227,   228,   229,   230,   231,   232,   233,   234,   235,   236,   237,   238,   239,   240
   241,   242,   243,   244,   245,   246,   247,   248,   249,   250,   251,   252,   253,   254,   255,   256
   257,   258,   259,   260,   261,   262,   263,   264,   265,   266,   267,   268,   269,   270,   271,   272
   273,   274,   275,   276,   277,   278,   279,   280,   281,   282,   283,   284,   285,   286,   287,   288
   289,   290,   291,   292,   293,   294,   295,   296,   297,   298,   299,   300,   301,   302,   303,   304
   305,   306,   307,   308,   309,   310,   311,   312,   313,   314,   315,   316,   317,   318,   319,   320
** ... 1341 like lines cut
*Elset, elset=Set-2, generate
  4801,  24264,      1
*Nset, nset=Set-3
     1,     2,     3,     4,     5,     6,     7,     8,    25,    26,    27,    28,    29,    30,    31,    32
    33,    34,    35,    36,    37,    38,    39,    40,    41,    42,    43,    44,    45,    46,    47,    48
    49,    50,    51,    52,    53,    54,    55,    56,    57,    58,    59,    60,    61,    62,    63,    64
    65,    66,    67,    68,    69,    70,    71,    72,    73,    74,    75,    76,    77,    78,    79,    80
    81,    82,    83,    84,    85,    86,    87,    88,    89,    90,    91,    92,    93,    94,    95,    96
    97,    98,    99,   100,   101,   102,   103,   104,   105,   106,   107,   108,   109,   110,   111,   112
   113,   114,   115,   116,   117,   118,   119,   120,   121,   122,   123,   124,   125,   126,   127,   128
   129,   130,   131,   132,   133,   134,   135,   136,   137,   138,   139,   140,   141,   142,   143,   144
   145,   146,   147,   148,   149,   150,   151,   152,   153,   154,   155,   156,   157,   158,   159,   160
   161,   162,   163,   164,   165,   166,   167,   168,   169,   170,   171,   172,   173,   174,   175,   176
   177,   178,   179,   180,   181,   182,   183,   184,   185,   186,   187,   188,   189,   190,   191,   192
   193,   194,   195,   196,   197,   198,   199,   200,   201,   202,   203,   204,   205,   206,   207,   208
   209,   210,   211,   212,   213,   214,   215,   216,   217,   218,   219,   220,   661,   662,   663,   664
   665,   666,   667,   668,   669,   670,   671,   672,   673,   674,   675,   676,   677,   678,   679,   680
   681,   682,   683,   684,   685,   686,   687,   688,   689,   690,   691,   692,   693,   694,   695,   696
   697,   698,   699,   700,   701,   702,   703,   704,   705,   706,   707,   708,   709,   710,   711,   712
   713,   714,   715,   716,   717,   718,   719,   720,   721,   722,   723,   724,   725,   726,   727,   728
   729,   730,   731,   732,   733,   734,   735,   736,   737,   738,   739,   740,   741,   742,   743,   744
   745,   746,   747,   748,   749,   750,   751,   752,   753,   754,   755,   756,   757,   758,   759,   760
   761,   762,   763,   764,   765,   766,   767,   768,   769,   770,   771,   772,   773,   774,   775,   776
** ... 339 like lines cut
*Elset, elset=Set-3, generate
    1,  4800,     1
** Section: Section-2-SET-5
*Orientation, name=Ori-1
    1.,           0.,           0.,           0.,           1.,           0.
3, 0.
*Solid Section, elset=Set-3, orientation=Ori-1, material=MATERIAL-2
0.5,
** Section: Section-1-SET-4
*Orientation, name=Ori-2
    1.,           0.,           0.,           0.,           1.,           0.
3, 0.
*Solid Section, elset=Set-2, orientation=Ori-2, material=MATERIAL-1
0.5
**
** my MPC
**
** MPC right side
*MPC, user, mode=node
11, 63,64,65,66,67,68,69,70,71,72
11, 73,74,75,76,77,78,79,80,81
11, 2010,2011,2012,2013,2014,2015,2016,2017,2018,2019
11, 2020,2021,2022,2023,2024,2025,2026,2027,2028
11, 2029,2030,2031,2032,2033,2034,2035,2036,2037,2038
11, 2039,2040,2041,2042,2043,2044,2045,2046,2047
11, 2048,2049,2050,2051,2052,2053,2054,2055,2056,2057
11, 2058,2059,2060,2061,2062,2063,2064,2065,2066
11, 2067,2068,2069,2070,2071,2072,2073,2074,2075,2076
11, 2077,2078,2079,2080,2081,2082,2083,2084,2085
11, 2086,2087,2088,2089,2090,2091,2092,2093,2094,2095
11, 2096,2097,2098,2099,2100,2101,2102,2103,2104
11, 2105,2106,2107,2108,2109,2110,2111,2112,2113,2114
11, 2115,2116,2117,2118,2119,2120,2121,2122,2123
11, 2124,2125,2126,2127,2128,2129,2130,2131,2132,2133
11, 2134,2135,2136,2137,2138,2139,2140,2141,2142
11, 2143,2144,2145,2146,2147,2148,2149,2150,2151,2152
11, 2153,2154,2155,2156,2157,2158,2159,2160,2161
11, 2162,2163,2164,2165,2166,2167,2168,2169,2170,2171
11, 2172,2173,2174,2175,2176,2177,2178,2179,2180
** ... 6 like lines cut
**
** MPC left side
*MPC, user, mode=node
12, 25,26,27,28,29,30,31,32,33,34
12, 35,36,37,38,39,40,41,42,43
12, 1801,1802,1803,1804,1805,1806,1807,1808,1809,1810
12, 1811,1812,1813,1814,1815,1816,1817,1818,1819
12, 1820,1821,1822,1823,1824,1825,1826,1827,1828,1829
12, 1830,1831,1832,1833,1834,1835,1836,1837,1838
12, 1839,1840,1841,1842,1843,1844,1845,1846,1847,1848
12, 1849,1850,1851,1852,1853,1854,1855,1856,1857
12, 1858,1859,1860,1861,1862,1863,1864,1865,1866,1867
12, 1868,1869,1870,1871,1872,1873,1874,1875,1876
12, 1877,1878,1879,1880,1881,1882,1883,1884,1885,1886
12, 1887,1888,1889,1890,1891,1892,1893,1894,1895
12, 1896,1897,1898,1899,1900,1901,1902,1903,1904,1905
12, 1906,1907,1908,1909,1910,1911,1912,1913,1914
12, 1915,1916,1917,1918,1919,1920,1921,1922,1923,1924
12, 1925,1926,1927,1928,1929,1930,1931,1932,1933
12, 1934,1935,1936,1937,1938,1939,1940,1941,1942,1943
12, 1944,1945,1946,1947,1948,1949,1950,1951,1952
12, 1953,1954,1955,1956,1957,1958,1959,1960,1961,1962
12, 1963,1964,1965,1966,1967,1968,1969,1970,1971
** ... 6 like lines cut
**
** MPC top side
*MPC, user, mode=node
13, 44,45,46,47,48,49,50,51,52,53
13, 54,55,56,57,58,59,60,61,62
13, 1592,1593,1594,1595,1596,1597,1598,1599,1600,1601
13, 1602,1603,1604,1605,1606,1607,1608,1609,1610
13, 1611,1612,1613,1614,1615,1616,1617,1618,1619,1620
13, 1621,1622,1623,1624,1625,1626,1627,1628,1629
13, 1630,1631,1632,1633,1634,1635,1636,1637,1638,1639
13, 1640,1641,1642,1643,1644,1645,1646,1647,1648
13, 1649,1650,1651,1652,1653,1654,1655,1656,1657,1658
13, 1659,1660,1661,1662,1663,1664,1665,1666,1667
13, 1668,1669,1670,1671,1672,1673,1674,1675,1676,1677
13, 1678,1679,1680,1681,1682,1683,1684,1685,1686
13, 1687,1688,1689,1690,1691,1692,1693,1694,1695,1696
13, 1697,1698,1699,1700,1701,1702,1703,1704,1705
13, 1706,1707,1708,1709,1710,1711,1712,1713,1714,1715
13, 1716,1717,1718,1719,1720,1721,1722,1723,1724
13, 1725,1726,1727,1728,1729,1730,1731,1732,1733,1734
13, 1735,1736,1737,1738,1739,1740,1741,1742,1743
13, 1744,1745,1746,1747,1748,1749,1750,1751,1752,1753
13, 1754,1755,1756,1757,1758,1759,1760,1761,1762
** ... 6 like lines cut
**
** MPC bottom side
*MPC, user, mode=node
14, 82,83,84,85,86,87,88,89,90,91
14, 92,93,94,95,96,97,98,99,100
14, 1383,1384,1385,1386,1387,1388,1389,1390,1391,1392
14, 1393,1394,1395,1396,1397,1398,1399,1400,1401
14, 1402,1403,1404,1405,1406,1407,1408,1409,1410,1411
14, 1412,1413,1414,1415,1416,1417,1418,1419,1420
14, 1421,1422,1423,1424,1425,1426,1427,1428,1429,1430
14, 1431,1432,1433,1434,1435,1436,1437,1438,1439
14, 1440,1441,1442,1443,1444,1445,1446,1447,1448,1449
14, 1450,1451,1452,1453,1454,1455,1456,1457,1458
14, 1459,1460,1461,1462,1463,1464,1465,1466,1467,1468
14, 1469,1470,1471,1472,1473,1474,1475,1476,1477
14, 1478,1479,1480,1481,1482,1483,1484,1485,1486,1487
14, 1488,1489,1490,1491,1492,1493,1494,1495,1496
14, 1497,1498,1499,1500,1501,1502,1503,1504,1505,1506
14, 1507,1508,1509,1510,1511,1512,1513,1514,1515
14, 1516,1517,1518,1519,1520,1521,1522,1523,1524,1525
14, 1526,1527,1528,1529,1530,1531,1532,1533,1534
14, 1535,1536,1537,1538,1539,1540,1541,1542,1543,1544
14, 1545,1546,1547,1548,1549,1550,1551,1552,1553
** ... 6 like lines cut
**
** MPC right bottom edge
*MPC, user, mode=node
21, 4,177,178,179,180,181,182,183,184,185
21, 186,187,7
**
** MPC right top edge
*MPC, user, mode=node
22, 3,209,208,207,206,205,204,203,202,201
22, 200,199,6
**
** MPC left top edge
*MPC, user, mode=node
23, 2,210,211,212,213,214,215,216,217,218
23, 219,220,5
**
** MPC left bottom edge
*MPC, user, mode=node
24, 1,198,197,196,195,194,193,192,191,190
24, 189,188,8
**
*End Part
**  
**
** ASSEMBLY
**
*Assembly, name=Assembly
**  
*Instance, name=Plate-1, part=Plate
*End Instance
**  
*Instance, name=Crack1_8_Angle_10-1, part=Crack1_8_Angle_10
*End Instance
**  
*Nset, nset=MY_EUC_new, instance=Plate-1
     1,     2,     3,     4,     5,     6,     7,     8,    18,    25,    26,    27,    28,    29,    30,    31
    32,    33,    34,    35,    36,    37,    38,    39,    40,    41,    42,    43,    44,    45,    46,    47
    48,    49,    50,    51,    52,    53,    54,    55,    56,    57,    58,    59,    60,    61,    62,    63
    64,    65,    66,    67,    68,    69,    70,    71,    72,    73,    74,    75,    76,    77,    78,    79
    80,    81,    82,    83,    84,    85,    86,    87,    88,    89,    90,    91,    92,    93,    94,    95
    96,    97,    98,    99,   100,   101,   102,   103,   104,   105,   106,   107,   108,   109,   110,   111
   112,   113,   114,   115,   116,   117,   118,   119,   120,   121,   122,   123,   124,   125,   126,   127
   128,   129,   130,   131,   132,   133,   134,   135,   136,   137,   138,   139,   140,   141,   142,   143
   144,   145,   146,   147,   148,   149,   150,   151,   152,   153,   154,   155,   156,   157,   158,   159
   160,   161,   162,   163,   164,   165,   166,   167,   168,   169,   170,   171,   172,   173,   174,   175
   176,   177,   178,   179,   180,   181,   182,   183,   184,   185,   186,   187,   188,   189,   190,   191
   192,   193,   194,   195,   196,   197,   198,   199,   200,   201,   202,   203,   204,   205,   206,   207
   208,   209,   210,   211,   212,   213,   214,   215,   216,   217,   218,   219,   220,   661,   662,   663
   664,   665,   666,   667,   668,   669,   670,   671,   672,   673,   674,   675,   676,   677,   678,   679
   680,   681,   682,   683,   684,   685,   686,   687,   688,   689,   690,   691,   692,   693,   694,   695
   696,   697,   698,   699,   700,   701,   702,   703,   704,   705,   706,   707,   708,   709,   710,   711
   712,   713,   714,   715,   716,   717,   718,   719,   720,   721,   722,   723,   724,   725,   726,   727
   728,   729,   730,   731,   732,   733,   734,   735,   736,   737,   738,   739,   740,   741,   742,   743
   744,   745,   746,   747,   748,   749,   750,   751,   752,   753,   754,   755,   756,   757,   758,   759
   760,   761,   762,   763,   764,   765,   766,   767,   768,   769,   770,   771,   772,   773,   774,   775
** ... 339 like lines cut
*Elset, elset=MY_EUC_new, instance=Plate-1, generate
    1,  4800,     1
*Nset, nset=Set-29, instance=Plate-1
    5,    6,    7,    8,  101,  102,  103,  104,  105,  106,  107,  108,  109,  110,  111,  112
  113,  114,  115,  116,  117,  118,  119,  120,  121,  122,  123,  124,  125,  126,  127,  128
  129,  130,  131,  132,  133,  134,  135,  136,  137,  138,  139,  140,  141,  142,  143,  144
  145,  146,  147,  148,  149,  150,  151,  152,  153,  154,  155,  156,  157,  158,  159,  160
  161,  162,  163,  164,  165,  166,  167,  168,  169,  170,  171,  172,  173,  174,  175,  176
 1022, 1023, 1024, 1025, 1026, 1027, 1028, 1029, 1030, 1031, 1032, 1033, 1034, 1035, 1036, 1037
 1038, 1039, 1040, 1041, 1042, 1043, 1044, 1045, 1046, 1047, 1048, 1049, 1050, 1051, 1052, 1053
 1054, 1055, 1056, 1057, 1058, 1059, 1060, 1061, 1062, 1063, 1064, 1065, 1066, 1067, 1068, 1069
 1070, 1071, 1072, 1073, 1074, 1075, 1076, 1077, 1078, 1079, 1080, 1081, 1082, 1083, 1084, 1085
 1086, 1087, 1088, 1089, 1090, 1091, 1092, 1093, 1094, 1095, 1096, 1097, 1098, 1099, 1100, 1101
 1102, 1103, 1104, 1105, 1106, 1107, 1108, 1109, 1110, 1111, 1112, 1113, 1114, 1115, 1116, 1117
 1118, 1119, 1120, 1121, 1122, 1123, 1124, 1125, 1126, 1127, 1128, 1129, 1130, 1131, 1132, 1133
 1134, 1135, 1136, 1137, 1138, 1139, 1140, 1141, 1142, 1143, 1144, 1145, 1146, 1147, 1148, 1149
 1150, 1151, 1152, 1153, 1154, 1155, 1156, 1157, 1158, 1159, 1160, 1161, 1162, 1163, 1164, 1165
 1166, 1167, 1168, 1169, 1170, 1171, 1172, 1173, 1174, 1175, 1176, 1177, 1178, 1179, 1180, 1181
 1182, 1183, 1184, 1185, 1186, 1187, 1188, 1189, 1190, 1191, 1192, 1193, 1194, 1195, 1196, 1197
 1198, 1199, 1200, 1201, 1202, 1203, 1204, 1205, 1206, 1207, 1208, 1209, 1210, 1211, 1212, 1213
 1214, 1215, 1216, 1217, 1218, 1219, 1220, 1221, 1222, 1223, 1224, 1225, 1226, 1227, 1228, 1229
 1230, 1231, 1232, 1233, 1234, 1235, 1236, 1237, 1238, 1239, 1240, 1241, 1242, 1243, 1244, 1245
 1246, 1247, 1248, 1249, 1250, 1251, 1252, 1253, 1254, 1255, 1256, 1257, 1258, 1259, 1260, 1261
** ... 8 like lines cut
*Elset, elset=Set-29, instance=Plate-1, generate
 4401,  4800,     1
*Nset, nset=Set-30, instance=Plate-1
    1,    2,    3,    4,   25,   26,   27,   28,   29,   30,   31,   32,   33,   34,   35,   36
   37,   38,   39,   40,   41,   42,   43,   44,   45,   46,   47,   48,   49,   50,   51,   52
   53,   54,   55,   56,   57,   58,   59,   60,   61,   62,   63,   64,   65,   66,   67,   68
   69,   70,   71,   72,   73,   74,   75,   76,   77,   78,   79,   80,   81,   82,   83,   84
   85,   86,   87,   88,   89,   90,   91,   92,   93,   94,   95,   96,   97,   98,   99,  100
  661,  662,  663,  664,  665,  666,  667,  668,  669,  670,  671,  672,  673,  674,  675,  676
  677,  678,  679,  680,  681,  682,  683,  684,  685,  686,  687,  688,  689,  690,  691,  692
  693,  694,  695,  696,  697,  698,  699,  700,  701,  702,  703,  704,  705,  706,  707,  708
  709,  710,  711,  712,  713,  714,  715,  716,  717,  718,  719,  720,  721,  722,  723,  724
  725,  726,  727,  728,  729,  730,  731,  732,  733,  734,  735,  736,  737,  738,  739,  740
  741,  742,  743,  744,  745,  746,  747,  748,  749,  750,  751,  752,  753,  754,  755,  756
  757,  758,  759,  760,  761,  762,  763,  764,  765,  766,  767,  768,  769,  770,  771,  772
  773,  774,  775,  776,  777,  778,  779,  780,  781,  782,  783,  784,  785,  786,  787,  788
  789,  790,  791,  792,  793,  794,  795,  796,  797,  798,  799,  800,  801,  802,  803,  804
  805,  806,  807,  808,  809,  810,  811,  812,  813,  814,  815,  816,  817,  818,  819,  820
  821,  822,  823,  824,  825,  826,  827,  828,  829,  830,  831,  832,  833,  834,  835,  836
  837,  838,  839,  840,  841,  842,  843,  844,  845,  846,  847,  848,  849,  850,  851,  852
  853,  854,  855,  856,  857,  858,  859,  860,  861,  862,  863,  864,  865,  866,  867,  868
  869,  870,  871,  872,  873,  874,  875,  876,  877,  878,  879,  880,  881,  882,  883,  884
  885,  886,  887,  888,  889,  890,  891,  892,  893,  894,  895,  896,  897,  898,  899,  900
** ... 8 like lines cut
*Elset, elset=Set-30, instance=Plate-1, generate
   1,  400,    1
*Nset, nset=Set-31, instance=Plate-1
    1,    2,    3,    4,    5,    6,    7,    8,    9,   10,   11,   12,   13,   14,   15,   16
   17,   18,   19,   20,   21,   22,   23,   24,   25,   26,   27,   28,   29,   30,   31,   32
   33,   34,   35,   36,   37,   38,   39,   40,   41,   42,   43,   44,   45,   46,   47,   48
   49,   50,   51,   52,   53,   54,   55,   56,   57,   58,   59,   60,   61,   62,   63,   64
   65,   66,   67,   68,   69,   70,   71,   72,   73,   74,   75,   76,   77,   78,   79,   80
   81,   82,   83,   84,   85,   86,   87,   88,   89,   90,   91,   92,   93,   94,   95,   96
   97,   98,   99,  100,  101,  102,  103,  104,  105,  106,  107,  108,  109,  110,  111,  112
  113,  114,  115,  116,  117,  118,  119,  120,  121,  122,  123,  124,  125,  126,  127,  128
  129,  130,  131,  132,  133,  134,  135,  136,  137,  138,  139,  140,  141,  142,  143,  144
  145,  146,  147,  148,  149,  150,  151,  152,  153,  154,  155,  156,  157,  158,  159,  160
  161,  162,  163,  164,  165,  166,  167,  168,  169,  170,  171,  172,  173,  174,  175,  176
  221,  222,  223,  224,  225,  226,  227,  228,  229,  230,  231,  232,  233,  234,  235,  236
  237,  238,  239,  240,  241,  242,  243,  244,  245,  246,  247,  248,  249,  250,  251,  252
  253,  254,  255,  256,  257,  258,  259,  260,  261,  262,  263,  264,  265,  266,  267,  268
  269,  270,  271,  272,  273,  274,  275,  276,  277,  278,  279,  280,  281,  282,  283,  284
  285,  286,  287,  288,  289,  290,  291,  292,  293,  294,  295,  296,  297,  298,  299,  300
  301,  302,  303,  304,  305,  306,  307,  308,  309,  310,  311,  312,  313,  314,  315,  316
  317,  318,  319,  320,  321,  322,  323,  324,  325,  326,  327,  328,  329,  330,  331,  332
  333,  334,  335,  336,  337,  338,  339,  340,  341,  342,  343,  344,  345,  346,  347,  348
  349,  350,  351,  352,  353,  354,  355,  356,  357,  358,  359,  360,  361,  362,  363,  364
** ... 235 like lines cut
*Elset, elset=Set-31, instance=Plate-1
     1,     2,     3,     4,     5,     6,     7,     8,     9,    10,    11,    12,    13,    14,    15,    16
    17,    18,    19,    20,    21,    22,    23,    24,    25,    26,    27,    28,    29,    30,    31,    32
    33,    34,    35,    36,    37,    38,    39,    40,    41,    42,    43,    44,    45,    46,    47,    48
    49,    50,    51,    52,    53,    54,    55,    56,    57,    58,    59,    60,    61,    62,    63,    64
    65,    66,    67,    68,    69,    70,    71,    72,    73,    74,    75,    76,    77,    78,    79,    80
    81,    82,    83,    84,    85,    86,    87,    88,    89,    90,    91,    92,    93,    94,    95,    96
    97,    98,    99,   100,   101,   102,   103,   104,   105,   106,   107,   108,   109,   110,   111,   112
   113,   114,   115,   116,   117,   118,   119,   120,   121,   122,   123,   124,   125,   126,   127,   128
   129,   130,   131,   132,   133,   134,   135,   136,   137,   138,   139,   140,   141,   142,   143,   144
   145,   146,   147,   148,   149,   150,   151,   152,   153,   154,   155,   156,   157,   158,   159,   160
   161,   162,   163,   164,   165,   166,   167,   168,   169,   170,   171,   172,   173,   174,   175,   176
   177,   178,   179,   180,   181,   182,   183,   184,   185,   186,   187,   188,   189,   190,   191,   192
   193,   194,   195,   196,   197,   198,   199,   200,   201,   202,   203,   204,   205,   206,   207,   208
   209,   210,   211,   212,   213,   214,   215,   216,   217,   218,   219,   220,   221,   222,   223,   224
   225,   226,   227,   228,   229,   230,   231,   232,   233,   234,   235,   236,   237,   238,   239,   240
   241,   242,   243,   244,   245,   246,   247,   248,   249,   250,   251,   252,   253,   254,   255,   256
   257,   258,   259,   260,   261,   262,   263,   264,   265,   266,   267,   268,   269,   270,   271,   272
   273,   274,   275,   276,   277,   278,   279,   280,   281,   282,   283,   284,   285,   286,   287,   288
   289,   290,   291,   292,   293,   294,   295,   296,   297,   298,   299,   300,   301,   302,   303,   304
   305,   306,   307,   308,   309,   310,   311,   312,   313,   314,   315,   316,   317,   318,   319,   320
** ... 233 like lines cut
*Nset, nset=Set-32, instance=Plate-1
  9, 10, 11, 12, 21, 22, 23, 24
*Nset, nset=Set-33, instance=Plate-1
  9, 10, 11, 12, 21, 22, 23, 24
*Nset, nset=Set-48, instance=Plate-1
  9, 10, 11, 12, 21, 22, 23, 24
*Nset, nset=Set-49, instance=Plate-1
    1,    2,    3,    4,    5,    6,    7,    8,    9,   10,   11,   12,   13,   14,   15,   16
   17,   18,   19,   20,   21,   22,   23,   24,   25,   26,   27,   28,   29,   30,   31,   32
   33,   34,   35,   36,   37,   38,   39,   40,   41,   42,   43,   44,   45,   46,   47,   48
   49,   50,   51,   52,   53,   54,   55,   56,   57,   58,   59,   60,   61,   62,   63,   64
   65,   66,   67,   68,   69,   70,   71,   72,   73,   74,   75,   76,   77,   78,   79,   80
   81,   82,   83,   84,   85,   86,   87,   88,   89,   90,   91,   92,   93,   94,   95,   96
   97,   98,   99,  100,  101,  102,  103,  104,  105,  106,  107,  108,  109,  110,  111,  112
  113,  114,  115,  116,  117,  118,  119,  120,  121,  122,  123,  124,  125,  126,  127,  128
  129,  130,  131,  132,  133,  134,  135,  136,  137,  138,  139,  140,  141,  142,  143,  144
  145,  146,  147,  148,  149,  150,  151,  152,  153,  154,  155,  156,  157,  158,  159,  160
  161,  162,  163,  164,  165,  166,  167,  168,  169,  170,  171,  172,  173,  174,  175,  176
  221,  222,  223,  224,  225,  226,  227,  228,  229,  230,  231,  232,  233,  234,  235,  236
  237,  238,  239,  240,  241,  242,  243,  244,  245,  246,  247,  248,  249,  250,  251,  252
  253,  254,  255,  256,  257,  258,  259,  260,  261,  262,  263,  264,  265,  266,  267,  268
  269,  270,  271,  272,  273,  274,  275,  276,  277,  278,  279,  280,  281,  282,  283,  284
  285,  286,  287,  288,  289,  290,  291,  292,  293,  294,  295,  296,  297,  298,  299,  300
  301,  302,  303,  304,  305,  306,  307,  308,  309,  310,  311,  312,  313,  314,  315,  316
  317,  318,  319,  320,  321,  322,  323,  324,  325,  326,  327,  328,  329,  330,  331,  332
  333,  334,  335,  336,  337,  338,  339,  340,  341,  342,  343,  344,  345,  346,  347,  348
  349,  350,  351,  352,  353,  354,  355,  356,  357,  358,  359,  360,  361,  362,  363,  364
** ... 235 like lines cut
*Elset, elset=Set-49, instance=Plate-1
     1,     2,     3,     4,     5,     6,     7,     8,     9,    10,    11,    12,    13,    14,    15,    16
    17,    18,    19,    20,    21,    22,    23,    24,    25,    26,    27,    28,    29,    30,    31,    32
    33,    34,    35,    36,    37,    38,    39,    40,    41,    42,    43,    44,    45,    46,    47,    48
    49,    50,    51,    52,    53,    54,    55,    56,    57,    58,    59,    60,    61,    62,    63,    64
    65,    66,    67,    68,    69,    70,    71,    72,    73,    74,    75,    76,    77,    78,    79,    80
    81,    82,    83,    84,    85,    86,    87,    88,    89,    90,    91,    92,    93,    94,    95,    96
    97,    98,    99,   100,   101,   102,   103,   104,   105,   106,   107,   108,   109,   110,   111,   112
   113,   114,   115,   116,   117,   118,   119,   120,   121,   122,   123,   124,   125,   126,   127,   128
   129,   130,   131,   132,   133,   134,   135,   136,   137,   138,   139,   140,   141,   142,   143,   144
   145,   146,   147,   148,   149,   150,   151,   152,   153,   154,   155,   156,   157,   158,   159,   160
   161,   162,   163,   164,   165,   166,   167,   168,   169,   170,   171,   172,   173,   174,   175,   176
   177,   178,   179,   180,   181,   182,   183,   184,   185,   186,   187,   188,   189,   190,   191,   192
   193,   194,   195,   196,   197,   198,   199,   200,   201,   202,   203,   204,   205,   206,   207,   208
   209,   210,   211,   212,   213,   214,   215,   216,   217,   218,   219,   220,   221,   222,   223,   224
   225,   226,   227,   228,   229,   230,   231,   232,   233,   234,   235,   236,   237,   238,   239,   240
   241,   242,   243,   244,   245,   246,   247,   248,   249,   250,   251,   252,   253,   254,   255,   256
   257,   258,   259,   260,   261,   262,   263,   264,   265,   266,   267,   268,   269,   270,   271,   272
   273,   274,   275,   276,   277,   278,   279,   280,   281,   282,   283,   284,   285,   286,   287,   288
   289,   290,   291,   292,   293,   294,   295,   296,   297,   298,   299,   300,   301,   302,   303,   304
   305,   306,   307,   308,   309,   310,   311,   312,   313,   314,   315,   316,   317,   318,   319,   320
** ... 233 like lines cut
*Nset, nset=_PickedSet60, internal, instance=Plate-1, generate
     1,  26455,      1
*Elset, elset=_PickedSet60, internal, instance=Plate-1, generate
     1,  24264,      1
*Elset, elset=_m_Surf-7_S4, internal, instance=Plate-1
 5152, 5172, 5178, 5574, 5594, 5600, 5996, 6016, 6022, 6418, 6438, 6444, 6840, 6860, 6866, 7262
 7282, 7288, 7684, 7704, 7710, 8106, 8126, 8132, 8528, 8548, 8554, 8950, 8970, 8976, 9372, 9392
 9398, 9794, 9814, 9820
*Elset, elset=_m_Surf-7_S3, internal, instance=Plate-1
 5162, 5176, 5187, 5584, 5598, 5609, 6006, 6020, 6031, 6428, 6442, 6453, 6850, 6864, 6875, 7272
 7286, 7297, 7694, 7708, 7719, 8116, 8130, 8141, 8538, 8552, 8563, 8960, 8974, 8985, 9382, 9396
 9407, 9804, 9818, 9829
*Surface, type=ELEMENT, name=m_Surf-7
_m_Surf-7_S4, S4
_m_Surf-7_S3, S3
*Elset, elset=_m_Surf-9_S3, internal, instance=Plate-1
 5160, 5172, 5582, 5594, 6004, 6016, 6426, 6438, 6848, 6860, 7270, 7282, 7692, 7704, 8114, 8126
 8536, 8548, 8958, 8970, 9380, 9392, 9802, 9814
*Elset, elset=_m_Surf-9_S6, internal, instance=Plate-1, generate
 5165,  9807,   422
*Elset, elset=_m_Surf-9_S4, internal, instance=Plate-1
 5175, 5192, 5597, 5614, 6019, 6036, 6441, 6458, 6863, 6880, 7285, 7302, 7707, 7724, 8129, 8146
 8551, 8568, 8973, 8990, 9395, 9412, 9817, 9834
*Elset, elset=_m_Surf-9_S5, internal, instance=Plate-1, generate
 5188,  9830,   422
*Surface, type=ELEMENT, name=m_Surf-9
_m_Surf-9_S3, S3
_m_Surf-9_S6, S6
_m_Surf-9_S4, S4
_m_Surf-9_S5, S5
*Elset, elset=_s_Surf-7_S3, internal, instance=Plate-1
 5080, 5107, 5175, 5502, 5529, 5597, 5924, 5951, 6019, 6346, 6373, 6441, 6768, 6795, 6863, 7190
 7217, 7285, 7612, 7639, 7707, 8034, 8061, 8129, 8456, 8483, 8551, 8878, 8905, 8973, 9300, 9327
 9395, 9722, 9749, 9817
*Elset, elset=_s_Surf-7_S4, internal, instance=Plate-1
 5157, 5174, 5579, 5596, 6001, 6018, 6423, 6440, 6845, 6862, 7267, 7284, 7689, 7706, 8111, 8128
 8533, 8550, 8955, 8972, 9377, 9394, 9799, 9816
*Elset, elset=_s_Surf-7_S6, internal, instance=Plate-1, generate
 5168,  9810,   422
*Surface, type=ELEMENT, name=s_Surf-7
_s_Surf-7_S3, S3
_s_Surf-7_S4, S4
_s_Surf-7_S6, S6
*Elset, elset=_s_Surf-9_S3, internal, instance=Plate-1
 5106, 5163, 5174, 5528, 5585, 5596, 5950, 6007, 6018, 6372, 6429, 6440, 6794, 6851, 6862, 7216
 7273, 7284, 7638, 7695, 7706, 8060, 8117, 8128, 8482, 8539, 8550, 8904, 8961, 8972, 9326, 9383
 9394, 9748, 9805, 9816
*Elset, elset=_s_Surf-9_S4, internal, instance=Plate-1
 5153, 5176, 5575, 5598, 5997, 6020, 6419, 6442, 6841, 6864, 7263, 7286, 7685, 7708, 8107, 8130
 8529, 8552, 8951, 8974, 9373, 9396, 9795, 9818
*Elset, elset=_s_Surf-9_S5, internal, instance=Plate-1, generate
 5158,  9800,   422
*Surface, type=ELEMENT, name=s_Surf-9
_s_Surf-9_S3, S3
_s_Surf-9_S4, S4
_s_Surf-9_S5, S5
** Constraint: LEFT-1-1-1-1
*Tie, name=LEFT-1-1-1-1, adjust=no, position tolerance=12.
s_Surf-7, m_Surf-7
** Constraint: TOP-1-1-1-1
*Tie, name=TOP-1-1-1-1, adjust=no, position tolerance=12.
s_Surf-9, m_Surf-9
*Enrichment, name=Crack-2, type=STATIONARY CRACK, elset=_PickedSet60
*End Assembly
** 
** MATERIALS
** 
**  End Assembly
** 
**   MATERIALS
** 
*Material, name=MATERIAL-1
*Damage Initiation, criterion=MAXPS
120.,
*Damage Evolution, type=DISPLACEMENT
 0.2,
*Elastic
210., 0.3
**    MATERIALS
** 
*Material, name=MATERIAL-2
*Damage Initiation, criterion=MAXPS
120.,
*Damage Evolution, type=DISPLACEMENT
 0.2,
*Elastic
210., 0.3
*Expansion, type=ANISO
1.,0.,0.,0.,0.,0.
*Initial Conditions, type=ENRICHMENT
Plate-1.110, 1,Crack-2, 0.0239278, 0.119903
Plate-1.110, 2,Crack-2, -0.176072, 0.0852218
Plate-1.110, 3,Crack-2, -0.140858, -0.111748
Plate-1.110, 4,Crack-2, 0.0591422, -0.0770673
Plate-1.110, 5,Crack-2, 0.0239278, 0.119903
Plate-1.110, 6,Crack-2, -0.176072, 0.0852218
Plate-1.110, 7,Crack-2, -0.140858, -0.111748
Plate-1.110, 8,Crack-2, 0.0591422, -0.0770673
Plate-1.510, 1,Crack-2, 0.0239278, 0.119903
Plate-1.510, 2,Crack-2, -0.176072, 0.0852218
Plate-1.510, 3,Crack-2, -0.140858, -0.111748
Plate-1.510, 4,Crack-2, 0.0591422, -0.0770673
Plate-1.510, 5,Crack-2, 0.0239278, 0.119903
Plate-1.510, 6,Crack-2, -0.176072, 0.0852218
Plate-1.510, 7,Crack-2, -0.140858, -0.111748
Plate-1.510, 8,Crack-2, 0.0591422, -0.0770673
Plate-1.910, 1,Crack-2, 0.0239278, 0.119903
Plate-1.910, 2,Crack-2, -0.176072, 0.0852218
Plate-1.910, 3,Crack-2, -0.140858, -0.111748
Plate-1.910, 4,Crack-2, 0.0591422, -0.0770673
** ... 1036 like lines cut
** ----------------------------------------------------------------
** 
** STEP: Step-1
** 
*Step, name=Step-1, nlgeom=NO
*Static, stabilize=0.0002, allsdtol=0.05, continue=NO
0.01, 1., 1e-09, 1.
** 
** BOUNDARY CONDITIONS
** 
** Name: BC-4 Type: Displacement/Rotation
*Boundary
Set-49, 3, 3
Set-49, 4, 4
Set-49, 5, 5
** Name: Disp-BC-3 Type: Displacement/Rotation
*Boundary
Set-48, 3, 3
Set-48, 4, 4
Set-48, 5, 5
** 
** PREDEFINED FIELDS
** 
** Name: Field-1   Type: Temperature
*Temperature
Plate-1.Set-3, -1.
** 
** OUTPUT REQUESTS
** 
*Restart, write, frequency=0
*Print, solve=NO
** 
** FIELD OUTPUT: F-Output-1
** 
*Output, field
*Node Output
CF, PHILSM, PSILSM, RF, U
** 
** FIELD OUTPUT: F-Output-2
** 
*Element Output, elset=MY_EUC_new, directions=YES
**@*Element Output, directions=YES
E, IVOL, LE, S
*Output, history, frequency=0
** 
** HISTORY OUTPUT: Crack-1
** 
*Contour Integral, crack name=Crack-2, contours=5, type=K FACTORS, direction=KII0, xfem
** 
** HISTORY OUTPUT: H-Output-2
** 
*Contour Integral, crack name=Crack-2, contours=5, xfem
*End Step
