*Heading
** Job name: Hahana_Macro Model name: Macro
** Generated by: Abaqus/CAE 6.14-5
*Preprint, echo=NO, model=NO, history=NO, contact=NO
**
** PARTS
**
*Part, name=Plate
*Node
      1,          28.,          58.,           0.
      2,          28.,          62.,           0.
      3,          32.,          62.,           0.
      4,          32.,          58.,           0.
      5,          28.,          62.,           6.
      6,          32.,          62.,           6.
      7,          32.,          58.,           6.
      8,          28.,          58.,           6.
      9,           0.,           0.,           6.
     10,          60.,           0.,           6.
     11,          16.,          46.,           6.
     12,          44.,          46.,           6.
     13,          16.,          74.,           6.
     14,          44.,          74.,           6.
     15,          60.,         120.,           6.
     16,           0.,         120.,           6.
     17,          60.,           0.,           0.
     18,           0.,           0.,           0.
     19,           0.,         120.,           0.
     20,          60.,         120.,           0.
** ... 1036 like lines cut
*Element, type=C3D8R
1, 8, 5, 6, 7, 1, 2, 3, 4
  2,  319,  329,   60,   59,  689,  699,  180,  181
  3,  329,  330,   61,   60,  699,  700,  179,  180
  4,  330,  331,   62,   61,  700,  701,  178,  179
  5,  331,  332,   63,   62,  701,  702,  177,  178
  6,  332,  333,   64,   63,  702,  703,  176,  177
  7,  333,  334,   65,   64,  703,  704,  175,  176
  8,  334,  335,   66,   65,  704,  705,  174,  175
  9,  335,  336,   67,   66,  705,  706,  173,  174
 10,  336,  337,   68,   67,  706,  707,  172,  173
 11,  337,  338,   69,   68,  707,  708,  171,  172
 12,  338,  339,   70,   69,  708,  709,  170,  171
 13,  339,  340,   71,   70,  709,  710,  169,  170
 14,  340,   72,    9,   71,  710,  168,   18,  169
 15,  318,  341,  329,  319,  688,  711,  699,  689
 16,  341,  342,  330,  329,  711,  712,  700,  699
 17,  342,  343,  331,  330,  712,  713,  701,  700
 18,  343,  344,  332,  331,  713,  714,  702,  701
 19,  344,  345,  333,  332,  714,  715,  703,  702
 20,  345,  346,  334,  333,  715,  716,  704,  703
** ... 460 like lines cut
*Nset, nset=Set-11, generate
 1,  8,  1
*Elset, elset=Set-11
 1,
*Nset, nset=Set-12, generate
    1,  1056,     1
*Elset, elset=Set-12, generate
   2,  480,    1
** Section: Section-2-SET-2
*Solid Section, elset=Set-11, material=MATERIAL-2
,
*hourglass stiffness
1
** Section: Section-1-SET-1
*Solid Section, elset=Set-12, material=MATERIAL-1
,
*End Part
**  
**
** ASSEMBLY
**
*Assembly, name=Assembly
**  
*Instance, name=Plate-1, part=Plate
*End Instance
**  
*Nset, nset=Set-10, instance=Plate-1, generate
    1,  1056,     1
*Elset, elset=Set-10, instance=Plate-1, generate
   1,  480,    1
*Elset, elset=_Surf-9_S3, internal, instance=Plate-1, generate
 418,  432,    1
*Surface, type=ELEMENT, name=Surf-9
_Surf-9_S3, S3
*Elset, elset=_Surf-10_S4, internal, instance=Plate-1, generate
  14,  196,   13
*Surface, type=ELEMENT, name=Surf-10
_Surf-10_S4, S4
*End Assembly
** 
** MATERIALS
** 
**  ELEMENT CONTROLS
** 
**  MATERIALS
** 
*Material, name=MATERIAL-1
*Damage Initiation, criterion=MAXPS
60.,
*Damage Evolution, type=DISPLACEMENT
 0.2,
*Elastic
210., 0.3
*Material, name=MATERIAL-2
*User Material, constants=3
600.,300.,100.
** ----------------------------------------------------------------
** 
** STEP: Step-1
** 
*Step, name=Step-1, nlgeom=NO
*Static, stabilize=0.0002, allsdtol=0.05, continue=NO
0.01, 1., 1e-09, 1.
** 
** BOUNDARY CONDITIONS
** 
** Name: Disp-BC-1 Type: Displacement/Rotation
*Boundary
Set-10, 3, 3
Set-10, 4, 4
Set-10, 5, 5
** 
** LOADS
** 
** Name: SURFFORCE-1   Type: Pressure
*Dsload
Surf-9, P, -10.
** Name: SURFFORCE-2   Type: Pressure
*Dsload
Surf-10, P, -10.
** 
** OUTPUT REQUESTS
** 
*Restart, write, frequency=0
** 
** FIELD OUTPUT: F-Output-1
** 
*Output, field
*Node Output
CF, RF, U
** 
** FIELD OUTPUT: F-Output-2
** 
*Element Output, directions=YES
E, IVOL, LE, PE, S, PEEQ
** 
** HISTORY OUTPUT: H-Output-1
** 
*Output, history, variable=PRESELECT
*End Step
